/*--------------------------------*- C++ -*----------------------------------*\
| =========                 |                                                 |
| \\      /  F ield         | OpenFOAM: The Open Source CFD Toolbox           |
|  \\    /   O peration     | Version:  2.4.0                                 |
|   \\  /    A nd           | Web:      www.OpenFOAM.org                      |
|    \\/     M anipulation  |                                                 |
\*---------------------------------------------------------------------------*/
FoamFile
{
    version     2.0;
    format      ascii;
    class       volScalarField;
    location    "0";
    object      alphat;
}
// * * * * * * * * * * * * * * * * * * * * * * * * * * * * * * * * * * * * * //

dimensions      [ 0 2 -1 0 0 0 0 ];

internalField   uniform 0;

boundaryField
{
    swalls
    {
        type            alphatJayatillekeWallFunction;
        Prt             0.9;
        value           uniform 0;
    }
    door
    {
        type            calculated;
        value           uniform 0;
    }
    inhale
    {
        type            alphatJayatillekeWallFunction;
        Prt             0.9;
        value           uniform 0;
    }
    exhale
    {
        type            alphatJayatillekeWallFunction;
        Prt             0.9;
        value           uniform 0;
    }
    mouthInhale
    {
        type            calculated;
        value           uniform 0;
    }
    mouthExhale
    {
        type            calculated;
        value           uniform 0;
    }
    "proc.*"
    {
        type            processor;
    }
}


// ************************************************************************* //
