/*--------------------------------*- C++ -*----------------------------------*\
| =========                 |                                                 |
| \\      /  F ield         | OpenFOAM: The Open Source CFD Toolbox           |
|  \\    /   O peration     | Version:  v1906                                 |
|   \\  /    A nd           | Web:      www.OpenFOAM.com                      |
|    \\/     M anipulation  |                                                 |
\*---------------------------------------------------------------------------*/
FoamFile
{
    version     2.0;
    format      ascii;
    class       dictionary;
    location    "system";
    object      fvSolution;
}
// * * * * * * * * * * * * * * * * * * * * * * * * * * * * * * * * * * * * * //

solvers
{
    p_rgh
    {
        solver          GAMG;
        tolerance       1e-06;
        relTol          0.01;
        smoother        GaussSeidel;
        cacheAgglomeration true;
        nCellsInCoarsestLevel 10;
        agglomerator    faceAreaPair;
        mergeLevels     1;
        minIter         1;
    }

    p_rghFinal
    {
        $p_rgh;
        relTol          0;
    }

    "(U|T|C|k|epsilon|R)"
    {
        solver          smoothSolver;
        smoother        symGaussSeidel;
        tolerance       1e-05;
        relTol          0.1;
        minIter         1;
    }

    "(U|T|C|k|epsilon|R)Final"
    {
        $U;
        relTol          0;
    }
}

PIMPLE
{
    momentumPredictor no;
    nOuterCorrectors 2;
    nCorrectors     1;
    nNonOrthogonalCorrectors 0;
    pRefCell        0;
    pRefValue       0;
}

relaxationFactors
{
    equations
    {
        "(U|T|C|k|epsilon|R)" 1;
        "(U|T|C|k|epsilon|R)Final" 1;
    }
}

// ************************************************************************* //
